*SCRIPT SPICE

.MODEL PV D(+IS=2.5245e-10 +N=35.09424 +Eg=1.12 +TEMP=25)

*ENDSCRIPT
